Version 4
SHEET 1 1552 868
WIRE 400 64 144 64
WIRE 656 64 464 64
WIRE 1072 64 816 64
WIRE 1296 64 1136 64
WIRE 528 176 528 160
WIRE 1184 176 1184 160
WIRE 480 208 304 208
WIRE 1136 208 976 208
WIRE -304 240 -416 240
WIRE -144 240 -224 240
WIRE -48 240 -144 240
WIRE 32 240 -48 240
WIRE 144 240 144 64
WIRE 144 240 112 240
WIRE 176 240 144 240
WIRE 304 240 304 208
WIRE 304 240 256 240
WIRE 656 240 656 64
WIRE 656 240 592 240
WIRE 704 240 656 240
WIRE 816 240 816 64
WIRE 816 240 784 240
WIRE 848 240 816 240
WIRE 976 240 976 208
WIRE 976 240 928 240
WIRE 1296 240 1296 64
WIRE 1296 240 1248 240
WIRE -416 256 -416 240
WIRE -144 272 -144 240
WIRE -48 272 -48 240
WIRE 480 272 400 272
WIRE 1136 272 1056 272
WIRE 304 320 304 240
WIRE 528 320 528 304
WIRE 976 320 976 240
WIRE 1184 320 1184 304
WIRE -144 368 -144 352
WIRE -48 368 -48 336
WIRE 400 384 400 272
WIRE 656 384 656 240
WIRE 656 384 400 384
WIRE 1056 384 1056 272
WIRE 1296 384 1296 240
WIRE 1296 384 1056 384
FLAG -16 48 +12V
FLAG -16 128 0
FLAG -48 368 0
FLAG 528 160 +12V
FLAG 1184 160 +12V
FLAG 304 384 0
FLAG 976 384 0
FLAG -416 336 0
FLAG -128 48 0
FLAG -128 128 -12V
FLAG 528 320 -12V
FLAG 1184 320 -12V
FLAG -144 368 0
SYMBOL voltage -16 32 R0
WINDOW 123 0 0 Left 0
WINDOW 39 0 0 Left 0
SYMATTR InstName V1
SYMATTR Value 12V
SYMBOL res -320 256 R270
WINDOW 0 32 56 VTop 2
WINDOW 3 0 56 VBottom 2
SYMATTR InstName R1
SYMATTR Value 51.1k
SYMBOL cap -64 272 R0
SYMATTR InstName C1
SYMATTR Value 470p
SYMBOL AutoGenerated\\LF347 544 240 R0
WINDOW 3 42 22 Top 2
SYMATTR InstName U2
SYMBOL AutoGenerated\\LF347 1200 240 R0
WINDOW 3 42 22 Top 2
SYMATTR InstName U3
SYMBOL res 128 224 R90
WINDOW 0 0 56 VBottom 2
WINDOW 3 32 56 VTop 2
SYMATTR InstName R2
SYMATTR Value 31.15k
SYMBOL res 272 224 R90
WINDOW 0 0 56 VBottom 2
WINDOW 3 32 56 VTop 2
SYMATTR InstName R3
SYMATTR Value 21.3k
SYMBOL res 800 224 R90
WINDOW 0 0 56 VBottom 2
WINDOW 3 32 56 VTop 2
SYMATTR InstName R4
SYMATTR Value 10.78k
SYMBOL res 944 224 R90
WINDOW 0 0 56 VBottom 2
WINDOW 3 32 56 VTop 2
SYMATTR InstName R5
SYMATTR Value 35.74k
SYMBOL cap 464 48 R90
WINDOW 0 0 32 VBottom 2
WINDOW 3 32 32 VTop 2
SYMATTR InstName C2
SYMATTR Value 470p
SYMBOL cap 1136 48 R90
WINDOW 0 0 32 VBottom 2
WINDOW 3 32 32 VTop 2
SYMATTR InstName C3
SYMATTR Value 2.2n
SYMBOL cap 320 384 R180
WINDOW 0 24 56 Left 2
WINDOW 3 24 8 Left 2
SYMATTR InstName C4
SYMATTR Value 220p
SYMBOL cap 992 384 R180
WINDOW 0 24 56 Left 2
WINDOW 3 24 8 Left 2
SYMATTR InstName C5
SYMATTR Value 120p
SYMBOL res -160 256 R0
SYMATTR InstName R8
SYMATTR Value 31.21k
SYMBOL voltage -128 32 R0
WINDOW 123 0 0 Left 0
WINDOW 39 0 0 Left 0
SYMATTR InstName V4
SYMATTR Value 12V
SYMBOL voltage -416 240 R0
WINDOW 3 -214 102 Left 2
WINDOW 123 -141 48 Left 2
WINDOW 39 0 0 Left 0
WINDOW 0 -126 75 Left 2
SYMATTR Value SINE(4.5 4.5 100)
SYMATTR Value2 AC 1V
SYMATTR InstName V5
TEXT 8 416 Left 2 !.ac dec 100 0.1 50k
