Version 4
SHEET 1 880 1064
WIRE -16 16 -80 16
WIRE 96 16 64 16
WIRE 208 16 96 16
WIRE 352 16 288 16
WIRE 96 128 96 16
WIRE 128 128 96 128
WIRE 352 160 352 16
WIRE 352 160 240 160
WIRE 528 160 528 144
WIRE 528 160 352 160
WIRE 656 160 528 160
WIRE 528 176 528 160
WIRE -240 192 -240 0
WIRE 32 192 -240 192
WIRE 128 192 32 192
WIRE -240 240 -240 192
WIRE 176 240 176 224
WIRE -16 336 -80 336
WIRE 96 336 64 336
WIRE 208 336 96 336
WIRE 352 336 288 336
WIRE 96 448 96 336
WIRE 128 448 96 448
WIRE 352 480 352 336
WIRE 352 480 240 480
WIRE 528 480 528 464
WIRE 528 480 352 480
WIRE 656 480 528 480
WIRE 528 496 528 480
WIRE -240 512 -240 320
WIRE 32 512 -240 512
WIRE 128 512 32 512
WIRE -240 560 -240 512
WIRE 176 560 176 544
WIRE -416 624 -864 624
WIRE -16 656 -80 656
WIRE 96 656 64 656
WIRE 192 656 96 656
WIRE 352 656 272 656
WIRE 96 784 96 656
WIRE 128 784 96 784
WIRE 352 816 352 656
WIRE 352 816 240 816
WIRE 528 816 528 800
WIRE 528 816 352 816
WIRE 656 816 528 816
WIRE 528 832 528 816
WIRE -240 848 -240 640
WIRE 32 848 -240 848
WIRE 128 848 32 848
WIRE -240 896 -240 848
WIRE 176 896 176 880
FLAG -416 400 0
FLAG -416 320 9V
FLAG 176 96 9V
FLAG 176 240 0
FLAG 176 416 9V
FLAG 176 560 0
FLAG 176 752 9V
FLAG 176 896 0
FLAG -864 544 Tsig
FLAG -416 704 0
FLAG 528 720 9V
FLAG 528 384 9V
FLAG 528 64 9V
FLAG -240 -80 9V
FLAG -240 976 0
FLAG 528 912 0
FLAG 528 576 0
FLAG 528 256 0
FLAG -80 16 Tsig
FLAG -80 336 Tsig
FLAG -80 656 Tsig
FLAG 656 160 5out
FLAG 656 480 3out
FLAG 656 816 1out
FLAG 32 192 5set
FLAG 32 512 3set
FLAG 32 848 1set
FLAG 96 16 th5
FLAG 96 336 th3
FLAG 96 656 th1
DATAFLAG -144 512 ""
DATAFLAG -160 192 ""
DATAFLAG -176 848 ""
SYMBOL AutoGenerated\\LM339 160 160 R0
SYMATTR InstName U1
SYMBOL voltage -416 304 R0
WINDOW 123 0 0 Left 0
WINDOW 39 0 0 Left 0
SYMATTR InstName V1
SYMATTR Value 9V
SYMBOL res -256 -96 R0
WINDOW 0 36 48 Left 2
SYMATTR InstName R1
SYMATTR Value 150k
SYMBOL res -256 224 R0
SYMATTR InstName R2
SYMATTR Value 62k
SYMBOL res -256 544 R0
SYMATTR InstName R3
SYMATTR Value 56k
SYMBOL AutoGenerated\\LM339 160 480 R0
SYMATTR InstName U2
SYMBOL AutoGenerated\\LM339 160 816 R0
SYMATTR InstName U3
SYMBOL res -256 880 R0
SYMATTR InstName R4
SYMATTR Value 62k
SYMBOL res 80 0 R90
WINDOW 0 0 56 VBottom 2
WINDOW 3 32 56 VTop 2
SYMATTR InstName R5
SYMATTR Value 47k
SYMBOL res 80 320 R90
WINDOW 0 0 56 VBottom 2
WINDOW 3 32 56 VTop 2
SYMATTR InstName R6
SYMATTR Value 68k
SYMBOL res 80 640 R90
WINDOW 0 0 56 VBottom 2
WINDOW 3 32 56 VTop 2
SYMATTR InstName R7
SYMATTR Value 160k
SYMBOL res 304 0 R90
WINDOW 0 0 56 VBottom 2
WINDOW 3 32 56 VTop 2
SYMATTR InstName R8
SYMATTR Value 1Meg
SYMBOL res 304 320 R90
WINDOW 0 0 56 VBottom 2
WINDOW 3 32 56 VTop 2
SYMATTR InstName R9
SYMATTR Value 1Meg
SYMBOL res 288 640 R90
WINDOW 0 0 56 VBottom 2
WINDOW 3 32 56 VTop 2
SYMATTR InstName R10
SYMATTR Value 1Meg
SYMBOL res 512 48 R0
SYMATTR InstName R11
SYMATTR Value 16k
SYMBOL res 512 160 R0
SYMATTR InstName R12
SYMATTR Value 20k
SYMBOL res 512 368 R0
SYMATTR InstName R13
SYMATTR Value 62k
SYMBOL voltage -416 528 R0
WINDOW 3 -396 55 Left 2
WINDOW 123 0 0 Left 0
WINDOW 39 0 0 Left 0
SYMATTR Value PULSE(0 7V 0 1ns 1ns 0.1 0.2)
SYMATTR InstName V2
SYMBOL res 512 480 R0
SYMATTR InstName R14
SYMATTR Value 36k
SYMBOL res 512 704 R0
SYMATTR InstName R15
SYMATTR Value 52k
SYMBOL res 512 816 R0
SYMATTR InstName R16
SYMATTR Value 13k
SYMBOL voltage -416 608 R0
WINDOW 0 32 32 Left 2
WINDOW 3 -261 56 Left 2
WINDOW 123 0 0 Left 0
WINDOW 39 0 0 Left 0
SYMATTR InstName V3
SYMATTR Value SINE(0 0.04 1000)
SYMBOL voltage -864 528 R0
WINDOW 3 -215 54 Left 2
WINDOW 123 0 0 Left 0
WINDOW 39 0 0 Left 0
SYMATTR Value SINE(0 7V 1)
SYMATTR InstName V4
TEXT -456 816 Left 2 !.tran 0.5
