Version 4
SHEET 1 1684 912
WIRE 400 64 144 64
WIRE 656 64 464 64
WIRE 1072 64 816 64
WIRE 1296 64 1136 64
WIRE 528 176 528 160
WIRE 1184 176 1184 160
WIRE 480 208 304 208
WIRE 1136 208 976 208
WIRE -304 240 -608 240
WIRE -144 240 -224 240
WIRE -48 240 -144 240
WIRE 32 240 -48 240
WIRE 144 240 144 64
WIRE 144 240 112 240
WIRE 176 240 144 240
WIRE 304 240 304 208
WIRE 304 240 256 240
WIRE 656 240 656 64
WIRE 656 240 592 240
WIRE 704 240 656 240
WIRE 816 240 816 64
WIRE 816 240 784 240
WIRE 848 240 816 240
WIRE 976 240 976 208
WIRE 976 240 928 240
WIRE 1296 240 1296 64
WIRE 1296 240 1248 240
WIRE -144 272 -144 240
WIRE -48 272 -48 240
WIRE 480 272 400 272
WIRE 1136 272 1056 272
WIRE 304 320 304 240
WIRE 528 320 528 304
WIRE 976 320 976 240
WIRE 1184 320 1184 304
WIRE -144 368 -144 352
WIRE -48 368 -48 336
WIRE 400 384 400 272
WIRE 656 384 656 240
WIRE 656 384 400 384
WIRE 1056 384 1056 272
WIRE 1296 384 1296 240
WIRE 1296 384 1056 384
WIRE -736 432 -912 432
WIRE -608 432 -608 240
WIRE -608 432 -736 432
WIRE -736 512 -736 496
WIRE -736 512 -912 512
WIRE -608 512 -736 512
WIRE 400 544 144 544
WIRE 656 544 464 544
WIRE 1072 544 816 544
WIRE 1296 544 1136 544
WIRE 528 656 528 640
WIRE 1184 656 1184 640
WIRE 480 688 304 688
WIRE 1136 688 976 688
WIRE -608 720 -608 512
WIRE -304 720 -608 720
WIRE -144 720 -224 720
WIRE -48 720 -144 720
WIRE 32 720 -48 720
WIRE 144 720 144 544
WIRE 144 720 112 720
WIRE 176 720 144 720
WIRE 304 720 304 688
WIRE 304 720 256 720
WIRE 656 720 656 544
WIRE 656 720 592 720
WIRE 704 720 656 720
WIRE 816 720 816 544
WIRE 816 720 784 720
WIRE 848 720 816 720
WIRE 976 720 976 688
WIRE 976 720 928 720
WIRE 1296 720 1296 544
WIRE 1296 720 1248 720
WIRE -144 752 -144 720
WIRE -48 752 -48 720
WIRE 480 752 400 752
WIRE 1136 752 1056 752
WIRE 304 800 304 720
WIRE 528 800 528 784
WIRE 976 800 976 720
WIRE 1184 800 1184 784
WIRE -144 848 -144 832
WIRE -48 848 -48 816
WIRE 400 864 400 752
WIRE 656 864 656 720
WIRE 656 864 400 864
WIRE 1056 864 1056 752
WIRE 1296 864 1296 720
WIRE 1296 864 1056 864
FLAG -896 96 +12V
FLAG -896 176 0
FLAG -48 368 0
FLAG 528 160 +12V
FLAG 1184 160 +12V
FLAG 304 384 0
FLAG 976 384 0
FLAG -1008 96 0
FLAG -1008 176 -12V
FLAG 528 320 -12V
FLAG 1184 320 -12V
FLAG -144 368 0
FLAG -48 848 0
FLAG 528 640 +12V
FLAG 1184 640 +12V
FLAG 304 864 0
FLAG 976 864 0
FLAG 528 800 -12V
FLAG 1184 800 -12V
FLAG -144 848 0
SYMBOL voltage -896 80 R0
WINDOW 123 0 0 Left 0
WINDOW 39 0 0 Left 0
SYMATTR InstName V1
SYMATTR Value 12V
SYMBOL res -320 256 R270
WINDOW 0 32 56 VTop 2
WINDOW 3 0 56 VBottom 2
SYMATTR InstName R1
SYMATTR Value 91k
SYMBOL cap -64 272 R0
SYMATTR InstName C1
SYMATTR Value 680p
SYMBOL LF347 544 240 R0
WINDOW 3 42 22 Top 2
SYMATTR InstName U2
SYMBOL LF347 1200 240 R0
WINDOW 3 42 22 Top 2
SYMATTR InstName U3
SYMBOL res 128 224 R90
WINDOW 0 0 56 VBottom 2
WINDOW 3 32 56 VTop 2
SYMATTR InstName R2
SYMATTR Value 43k
SYMBOL res 272 224 R90
WINDOW 0 0 56 VBottom 2
WINDOW 3 32 56 VTop 2
SYMATTR InstName R3
SYMATTR Value 30k
SYMBOL res 800 224 R90
WINDOW 0 0 56 VBottom 2
WINDOW 3 32 56 VTop 2
SYMATTR InstName R4
SYMATTR Value 9.1k
SYMBOL res 944 224 R90
WINDOW 0 0 56 VBottom 2
WINDOW 3 32 56 VTop 2
SYMATTR InstName R5
SYMATTR Value 36k
SYMBOL cap 464 48 R90
WINDOW 0 0 32 VBottom 2
WINDOW 3 32 32 VTop 2
SYMATTR InstName C2
SYMATTR Value 680p
SYMBOL cap 1136 48 R90
WINDOW 0 0 32 VBottom 2
WINDOW 3 32 32 VTop 2
SYMATTR InstName C3
SYMATTR Value 3.3n
SYMBOL cap 320 384 R180
WINDOW 0 24 56 Left 2
WINDOW 3 24 8 Left 2
SYMATTR InstName C4
SYMATTR Value 180p
SYMBOL cap 992 384 R180
WINDOW 0 24 56 Left 2
WINDOW 3 24 8 Left 2
SYMATTR InstName C5
SYMATTR Value 180p
SYMBOL res -160 256 R0
SYMATTR InstName R8
SYMATTR Value 33k
SYMBOL voltage -1008 80 R0
WINDOW 123 0 0 Left 0
WINDOW 39 0 0 Left 0
SYMATTR InstName V4
SYMATTR Value 12V
SYMBOL res -320 736 R270
WINDOW 0 32 56 VTop 2
WINDOW 3 0 56 VBottom 2
SYMATTR InstName R7
SYMATTR Value 91k
SYMBOL cap -64 752 R0
SYMATTR InstName C7
SYMATTR Value 680p
SYMBOL LF347 544 720 R0
WINDOW 3 42 22 Top 2
SYMATTR InstName U1
SYMBOL LF347 1200 720 R0
WINDOW 3 42 22 Top 2
SYMATTR InstName U4
SYMBOL res 128 704 R90
WINDOW 0 0 56 VBottom 2
WINDOW 3 32 56 VTop 2
SYMATTR InstName R9
SYMATTR Value 43k
SYMBOL res 272 704 R90
WINDOW 0 0 56 VBottom 2
WINDOW 3 32 56 VTop 2
SYMATTR InstName R10
SYMATTR Value 30k
SYMBOL res 800 704 R90
WINDOW 0 0 56 VBottom 2
WINDOW 3 32 56 VTop 2
SYMATTR InstName R11
SYMATTR Value 9.1k
SYMBOL res 944 704 R90
WINDOW 0 0 56 VBottom 2
WINDOW 3 32 56 VTop 2
SYMATTR InstName R12
SYMATTR Value 36k
SYMBOL cap 464 528 R90
WINDOW 0 0 32 VBottom 2
WINDOW 3 32 32 VTop 2
SYMATTR InstName C8
SYMATTR Value 680p
SYMBOL cap 1136 528 R90
WINDOW 0 0 32 VBottom 2
WINDOW 3 32 32 VTop 2
SYMATTR InstName C9
SYMATTR Value 3.3n
SYMBOL cap 320 864 R180
WINDOW 0 24 56 Left 2
WINDOW 3 24 8 Left 2
SYMATTR InstName C10
SYMATTR Value 180p
SYMBOL cap 992 864 R180
WINDOW 0 24 56 Left 2
WINDOW 3 24 8 Left 2
SYMATTR InstName C11
SYMATTR Value 180p
SYMBOL res -160 736 R0
SYMATTR InstName R13
SYMATTR Value 33k
SYMBOL res -624 416 R0
SYMATTR InstName R6
SYMATTR Value 8
SYMBOL current -912 512 R180
WINDOW 0 27 76 VRight 2
WINDOW 3 79 -83 VRight 2
WINDOW 123 54 6 VRight 2
WINDOW 39 0 0 Left 0
SYMATTR InstName I1
SYMATTR Value SINE(0 4 100)
SYMATTR Value2 AC .125
SYMBOL cap -752 432 R0
SYMATTR InstName C6
SYMATTR Value 2200µF
TEXT -1056 256 Left 2 !.tran 0 0.1 0 0.01
